640
Lattice="18.700606 0.0 0.0 0.0 18.700606 0.0 0.0 0.0 18.700606" Properties=species:S:1:pos:R:3 pbc="T T T"
C        4.71437000       9.01224000      12.81140000
C        4.62047000       9.16643000      11.27310000
O        4.30419000      10.23900000      10.78550000
O        4.90317000       8.18214000      10.58120000
H        4.33048000       8.06799000      13.22530000
H        4.23730000       9.82542000      13.38510000
H        5.76058000       8.95425000      13.06560000
C       16.86020000      16.46980000      10.16850000
C       17.06190000      15.76360000       8.81242000
O       17.84360000      14.84940000       8.73308000
O       16.37230000      16.18690000       7.89549000
H       17.26220000      15.81920000      10.95830000
H       15.83410000      16.66820000      10.47730000
H       17.39570000      17.44870000      10.16260000
C       15.64740000      15.84940000       3.04658000
C       15.10000000      14.54100000       2.93549000
O       15.01150000      13.91720000       3.95909000
O       14.65870000      14.16180000       1.85434000
H       16.72080000      15.79580000       3.05557000
H       15.33240000      16.34790000       3.98612000
H       15.44620000      16.56190000       2.18030000
C        7.05457000       2.06739000       4.68031000
C        6.12860000       2.49168000       5.73167000
O        6.14232000       1.85161000       6.75546000
O        5.43141000       3.49308000       5.57413000
H        6.49777000       2.17674000       3.70504000
H        7.30816000       0.97355200       4.79287000
H        7.94103000       2.76166000       4.65521000
C       15.29750000      17.37040000      17.22100000
C       15.19390000      17.77410000      15.78170000
O       14.58650000       0.14372300      15.60480000
O       15.74630000      17.13890000      14.90300000
H       16.28030000      17.43750000      17.73700000
H       14.90430000      16.37420000      17.36510000
H       14.60620000      17.97400000      17.79890000
C       16.01800000      10.25630000       1.67988000
C       14.92470000       9.45631000       0.92503600
O       14.33740000       8.62613000       1.57295000
O       14.77310000       9.73822000      18.43240000
H       16.81190000      10.64290000       1.01976000
H       16.54680000       9.58045000       2.38352000
H       15.64350000      11.14520000       2.14385000
C        1.24084000       1.13817000      15.67230000
C        2.12817000       1.98903000      16.52820000
O        1.94299000       3.16894000      16.60760000
O        3.13606000       1.55368000      17.04010000
H        0.30270600       1.72811000      15.47160000
H        1.17962000       0.13483900      16.00860000
H        1.71635000       0.80997000      14.74690000
C       11.70000000      10.84550000      10.62470000
C       13.26870000      10.68320000      10.81200000
O       13.76780000       9.57409000      10.92440000
O       13.96250000      11.71580000      10.77950000
H       11.18540000       9.94913000      10.34680000
H       11.48590000      11.55500000       9.90608000
H       11.25850000      11.21630000      11.58200000
C        2.38201000      15.92320000      11.12660000
C        3.49257000      15.55180000      10.17450000
O        3.28657000      15.49990000       8.95003000
O        4.59432000      15.37540000      10.65100000
H        2.63399000      16.77350000      11.79460000
H        2.16686000      15.12890000      11.78520000
H        1.47404000      16.08800000      10.53950000
C        8.21107000      16.45520000       5.52800000
C        7.21883000      16.51830000       4.44977000
O        6.07642000      16.13880000       4.68120000
O        7.53777000      16.92900000       3.34985000
H        8.14482000      17.37260000       6.14936000
H        9.13223000      16.49700000       5.00839000
H        8.09581000      15.42290000       6.07239000
C       17.92400000      10.55610000       6.77007000
C       16.45050000      10.36650000       6.34634000
O       15.98990000       9.21518000       6.31212000
O       15.83440000      11.40790000       6.13434000
H       18.37730000      10.97850000       5.94011000
H       18.36160000       9.64455000       7.00547000
H       18.10950000      11.23840000       7.58281000
C       18.11520000       2.20135000       2.60048000
C        0.80964700       2.81429000       2.56786000
O        1.74134000       2.18359000       3.01505000
O        0.91544800       3.87536000       2.02823000
H       18.02430000       1.38862000       1.85958000
H       17.37290000       2.97329000       2.35274000
H       17.90140000       1.80478000       3.58207000
C        8.48680000      10.21400000       0.70788600
C        8.28645000       8.83720000       1.10974000
O        9.31686000       8.21230000       1.28631000
O        7.18267000       8.35863000       1.11582000
H        7.54350000      10.59670000       0.29301900
H        9.21148000      10.25000000      18.60380000
H        8.71939000      10.83150000       1.57321000
C        2.29358000      13.05110000       0.17961000
C        1.72578000      14.45870000       0.39730800
O        1.52255000      14.75370000       1.56954000
O        1.46368000      15.19870000      18.16740000
H        1.45376000      12.43280000       0.34635300
H        3.09093000      12.67870000       0.80013300
H        2.58381000      12.73970000      17.86950000
C       10.21720000       5.18133000       4.40787000
C       11.41260000       5.32578000       5.26385000
O       11.15620000       5.77230000       6.39117000
O       12.51560000       5.34159000       4.76846000
H       10.46570000       4.93372000       3.37147000
H        9.55407000       5.96829000       4.44786000
H        9.71672000       4.34902000       4.85977000
C        8.79287000      12.30950000       4.22065000
C        9.54767000      13.44150000       3.64917000
O        9.47882000      13.69690000       2.48692000
O       10.26720000      14.09900000       4.44330000
H        8.31797000      12.60660000       5.11319000
H        9.53980000      11.55740000       4.51350000
H        8.06361000      11.79100000       3.60853000
C        8.87394000      12.45680000       9.26159000
C        9.47505000      13.80080000       9.28012000
O        8.83816000      14.67870000       9.80497000
O       10.55630000      13.97390000       8.76906000
H        9.26664000      11.94070000       8.39953000
H        7.77384000      12.50860000       9.24821000
H        9.04928000      11.95510000      10.18850000
C        7.60422000       0.63742500      18.06980000
C        8.02529000       1.80050000       0.24530100
O        9.18866000       2.15856000       0.14743100
O        7.19277000       2.43593000       0.80307800
H        7.19770000      18.57730000       0.01196260
H        8.40092000       0.37377100      17.46580000
H        6.82836000       0.98558900      17.45060000
C       11.41130000       5.52214000      15.26030000
C       12.26190000       5.16655000      14.04460000
O       11.98010000       5.78640000      13.06350000
O       13.22590000       4.41236000      14.14850000
H       10.39790000       5.50626000      15.04160000
H       11.69900000       6.48165000      15.60810000
H       11.59760000       4.83992000      16.03810000
C        1.34093000      10.78980000      13.58450000
C        1.69375000      12.28110000      14.03290000
O        1.94988000      13.07580000      13.18980000
O        1.75296000      12.52250000      15.24680000
H        1.34885000      10.14800000      14.47180000
H        1.97510000      10.44260000      12.77100000
H        0.26763000      10.76930000      13.25430000
C       16.37500000       2.64242000       6.18129000
C       16.21890000       2.37389000       7.66355000
O       17.21220000       2.35685000       8.34063000
O       15.07290000       2.10725000       8.07020000
H       16.74320000       1.78158000       5.61999000
H       17.12260000       3.50190000       6.15755000
H       15.45130000       3.13352000       5.86395000
C       10.60390000       1.60565000       8.46539000
C       11.20000000       1.25672000       9.77347000
O       10.99130000       0.12724500      10.18950000
O       11.89040000       2.11161000      10.24780000
H       10.25080000       2.65474000       8.45277000
H        9.79855000       0.85724700       8.19178000
H       11.35610000       1.61952000       7.64956000
C        8.01986000       8.78526000       4.38619000
C        7.79147000       8.28321000       5.87589000
O        6.75468000       7.71481000       6.15570000
O        8.66808000       8.61323000       6.69014000
H        8.85904000       9.55091000       4.41650000
H        7.16288000       9.45938000       4.18787000
H        8.29203000       7.92870000       3.73497000
C       14.83210000       0.53991100       1.75526000
C       14.13100000       1.69301000       1.00172000
O       14.77660000       2.70097000       0.71187400
O       12.94300000       1.61909000       0.78231200
H       14.05990000      18.58780000       2.06367000
H       15.44280000       0.90703400       2.63396000
H       15.40940000       0.03087410       0.99288300
C       11.04360000      12.85570000      16.73880000
C       12.30790000      13.14280000      15.94550000
O       13.01330000      14.08580000      16.33090000
O       12.52610000      12.42550000      14.94820000
H       10.20140000      13.25680000      16.15840000
H       11.06710000      13.42460000      17.71000000
H       10.89490000      11.76520000      16.77280000
C        2.56824000      10.48430000       5.24360000
C        2.06448000       9.29951000       4.49577000
O        2.44516000       9.21076000       3.36067000
O        1.41733000       8.41773000       5.05353000
H        3.54127000      10.18360000       5.66640000
H        1.93228000      10.60370000       6.11821000
H        2.68853000      11.35060000       4.56047000
C        2.21733000       0.93360700      11.34960000
C        2.79084000       2.07150000      10.68420000
O        2.22004000       2.40080000       9.66955000
O        3.78505000       2.60004000      11.18620000
H        2.43592000       0.07796210      10.74470000
H        1.16785000       1.20609000      11.52790000
H        2.66358000       0.83174500      12.31760000
C        8.71714000      16.23910000      15.96550000
C        8.30394000      16.65780000      14.53560000
O        9.04324000      17.38060000      13.98310000
O        7.26164000      16.35300000      14.00860000
H        9.04674000      17.02500000      16.60240000
H        9.44513000      15.46470000      15.98470000
H        7.83813000      15.90130000      16.47380000
C       17.92640000       7.20817000      17.77060000
C        0.37228000       7.49742000      16.96520000
O        1.41166000       7.45528000      17.59850000
O        0.17980900       7.78063000      15.75500000
H       17.59940000       8.04982000      18.35920000
H       18.25730000       6.43041000      18.48390000
H       17.20830000       6.67917000      17.16660000
C        8.29703000       8.43879000      16.12340000
C        8.06224000       9.61155000      15.20990000
O        7.64295000      10.56510000      15.76380000
O        8.35058000       9.49948000      14.04650000
H        9.29405000       8.37455000      16.57480000
H        8.22812000       7.51680000      15.54060000
H        7.44780000       8.34755000      16.84710000
C       17.80140000       4.58388000      11.40560000
C       17.29520000       6.03687000      11.27070000
O       17.66480000       6.62764000      10.28550000
O       16.51390000       6.41781000      12.15220000
H       17.59870000       4.17820000      10.38070000
H       17.22070000       3.92090000      12.17940000
H        0.25085700       4.52440000      11.54490000
C        6.48672000       5.91159000      13.76340000
C        6.95062000       4.44479000      14.03720000
O        7.64813000       3.96213000      13.19340000
O        6.64136000       3.94930000      15.03790000
H        5.79678000       5.89865000      12.96270000
H        7.34067000       6.52007000      13.43300000
H        5.96858000       6.30045000      14.61740000
C        0.92475600      12.46700000      10.39510000
N       18.46330000      11.54910000      10.41070000
C       18.61160000      10.21220000      10.58270000
C       17.35160000       9.69209000      10.77610000
N       16.56480000      10.72430000      10.41950000
C       17.23550000      11.81160000       9.94684000
H        1.85363000      11.84370000      10.72980000
H        0.78462500      13.25440000      11.15820000
H        1.20459000      12.74400000       9.37886000
H        0.86210500       9.77101000      10.84700000
H       16.96700000       8.75200000      11.18760000
H       15.51720000      10.60160000      10.38420000
H       16.78770000      12.71410000       9.51742000
C        6.84572000       5.23137000       3.06316000
N        5.32024000       5.29668000       3.13759000
C        4.53947000       6.47123000       3.19344000
C        3.23130000       6.12198000       3.15620000
N        3.22250000       4.80999000       2.94096000
C        4.43152000       4.24799000       2.90385000
H        7.22161000       4.38090000       2.42506000
H        7.40573000       5.19989000       4.04631000
H        7.14584000       6.17531000       2.52442000
H        4.86812000       7.45404000       3.24667000
H        2.29582000       6.75240000       3.26301000
H        2.41675000       4.16716000       2.79959000
H        4.72122000       3.22267000       2.67412000
C        5.81485000      10.16870000       7.97389000
N        5.51073000      11.57890000       7.84039000
C        5.99015000      12.25650000       6.73046000
C        5.79154000      13.59880000       6.99725000
N        5.12284000      13.63750000       8.15450000
C        5.00044000      12.47000000       8.71256000
H        5.28863000       9.46591000       7.28928000
H        5.60124000       9.77632000       8.99391000
H        6.83173000      10.01220000       7.74712000
H        6.28266000      11.81050000       5.79566000
H        5.87378000      14.48970000       6.41079000
H        4.64106000      14.48310000       8.52283000
H        4.44061000      12.24600000       9.62101000
C        2.57078000       8.30924000       8.10597000
N        3.26108000       7.07684000       7.79512000
C        2.96536000       5.88869000       8.54434000
C        3.61971000       4.79169000       7.96486000
N        4.10651000       5.29374000       6.82024000
C        3.87817000       6.61603000       6.60963000
H        1.95446000       8.39499000       9.00584000
H        1.95670000       8.62261000       7.21426000
H        3.25815000       9.07713000       8.34504000
H        2.32611000       5.92539000       9.39371000
H        3.61892000       3.68595000       8.17438000
H        4.53770000       4.74797000       6.07283000
H        4.28781000       7.28121000       5.83931000
C        9.20992000      12.55640000      13.57310000
N        7.94142000      12.75670000      12.98010000
C        6.79521000      11.94030000      12.90200000
C        5.80550000      12.63880000      12.18320000
N        6.34047000      13.83080000      11.94680000
C        7.50851000      13.96330000      12.48640000
H        9.73398000      11.76030000      13.02210000
H        9.07099000      12.12480000      14.54240000
H        9.78058000      13.51700000      13.61250000
H        6.84985000      10.93750000      13.16080000
H        4.79506000      12.42190000      11.85710000
H        5.98684000      14.51710000      11.24340000
H        8.14569000      14.81320000      12.25020000
C       10.89980000      16.76810000       2.50141000
N       11.26080000      16.67630000       1.07895000
C       11.39390000      17.75510000       0.23783500
C       11.91690000      17.32230000      17.74240000
N       12.17750000      15.95960000      17.88260000
C       11.85060000      15.54190000       0.44226600
H       10.79040000      17.74150000       2.87028000
H       11.63030000      16.27430000       3.07189000
H        9.89590000      16.26600000       2.56078000
H       11.27310000       0.12653500       0.52254800
H       12.17210000      17.86700000      16.81830000
H       12.72480000      15.35500000      17.32310000
H       12.13870000      14.62540000       0.88526300
C       14.64920000       6.17715000      18.14520000
N       13.18210000       6.22635000      18.49980000
C       12.45800000       5.07079000      18.51280000
C       11.21570000       5.34788000       0.27706100
N       11.19510000       6.72851000       0.33769900
C       12.32330000       7.34150000       0.04530700
H       15.19800000       7.03008000      18.56610000
H       14.72950000       6.24658000      17.01530000
H       15.07990000       5.26126000      18.49720000
H       12.90460000       4.08769000      18.42910000
H       10.32790000       4.64576000       0.51172600
H       10.34340000       7.24719000       0.58291000
H       12.64990000       8.36987000       0.02824750
C       17.34570000       2.44917000      17.85010000
N       16.91560000       3.19841000      16.67310000
C       17.69060000       4.13385000      15.99080000
C       16.99620000       4.72394000      14.94230000
N       15.71980000       4.20352000      15.21190000
C       15.62520000       3.23804000      16.17490000
H       17.07720000       3.07930000       0.05805190
H       18.38360000       2.15172000      17.82730000
H       16.70190000       1.53855000      17.91280000
H       18.67410000       4.34158000      16.41460000
H       17.21660000       5.42946000      14.22650000
H       14.88550000       4.40053000      14.63100000
H       14.71510000       2.67636000      16.46260000
C        1.35500000       3.12596000       5.92796000
N        0.91377500       4.36367000       6.58112000
C        0.73506500       5.58964000       5.88728000
C       18.68850000       6.40620000       6.69176000
N       18.59280000       5.72148000       7.92870000
C        0.39068200       4.47634000       7.81992000
H        2.06714000       3.23866000       5.14461000
H        0.51082200       2.45607000       5.71450000
H        1.90100000       2.57594000       6.66718000
H        1.18867000       5.78742000       4.89707000
H       18.31180000       7.38887000       6.65760000
H       18.19500000       6.18480000       8.73767000
H        0.35146900       3.75454000       8.61618000
C        8.07574000       5.07112000       7.23233000
N        7.30174000       5.18287000       8.41449000
C        7.07522000       4.18583000       9.37419000
C        6.26543000       4.63517000      10.38000000
N        6.21356000       5.99127000      10.04980000
C        6.86438000       6.33095000       8.94469000
H        8.73180000       4.17740000       7.34935000
H        8.64045000       6.01368000       6.97885000
H        7.39617000       4.90302000       6.43964000
H        7.40028000       3.10661000       9.20194000
H        5.69106000       4.13281000      11.16430000
H        5.60870000       6.67068000      10.50170000
H        6.76668000       7.32373000       8.48222000
C       17.62210000       0.68313900      13.52280000
N       16.68740000       1.05962000      12.47850000
C       15.38690000       0.64708400      12.47460000
C       14.84970000       0.99463700      11.25750000
N       15.89980000       1.64390000      10.61700000
C       17.06430000       1.62283000      11.29390000
H       17.19560000       0.92419600      14.48070000
H       18.56640000       1.18356000      13.30690000
H       17.59740000      18.23460000      13.60220000
H       14.87220000       0.19051900      13.29960000
H       13.78300000       1.08405000      10.90160000
H       15.86120000       1.90014000       9.63103000
H       18.00490000       1.88458000      10.81030000
C       17.99920000       7.42451000       2.64188000
N       16.88440000       6.58776000       3.01598000
C       16.65150000       5.34295000       2.48280000
C       15.36170000       4.87977000       2.80815000
N       14.82250000       5.99892000       3.46235000
C       15.70970000       7.04361000       3.55955000
H        0.18885600       6.82100000       2.43054000
H       18.11160000       8.10256000       3.55969000
H       17.71630000       8.08859000       1.75985000
H       17.33640000       4.90238000       1.78888000
H       14.81040000       4.01823000       2.47307000
H       13.83480000       6.01107000       3.79279000
H       15.58370000       7.98846000       4.00264000
C        6.79819000      17.62910000       8.77669000
N        7.09714000      18.23020000       9.99233000
C        6.43568000       0.68231300      10.40770000
C        6.98307000       1.10897000      11.60130000
N        7.90250000       0.08348130      11.92030000
C        7.98663000      17.85840000      10.91820000
H        5.78345000      17.18130000       8.73582000
H        7.53713000      16.95170000       8.56167000
H        6.76287000      18.35230000       7.95818000
H        5.74297000       1.11825000       9.67271000
H        6.81336000       1.97436000      12.23620000
H        8.47955000      18.64530000      12.75080000
H        8.58950000      16.99150000      10.94000000
C        0.33399600      18.11680000       6.81968000
N        1.69997000      18.52280000       6.48424000
C        2.02934000       0.27343600       5.20469000
C        3.34633000       0.67836600       5.16611000
N        3.80766000       0.35454300       6.43491000
C        2.79822000      18.57730000       7.31209000
H       18.51460000      17.81710000       5.87302000
H       18.43010000       0.22616600       7.24728000
H        0.28769600      17.21130000       7.43504000
H        1.36420000       0.33060500       4.35953000
H        3.97619000       1.00692000       4.36874000
H        4.76391000       0.65408500       6.71855000
H        2.89651000      18.20370000       8.30272000
C       10.65460000       5.77418000       9.97848000
N        9.81095000       6.84287000      10.45940000
C        9.40646000       7.95651000       9.73367000
C        8.68945000       8.71071000      10.58340000
N        8.67356000       8.07607000      11.75290000
C        9.38458000       6.92829000      11.74690000
H       11.35640000       5.37480000      10.69800000
H       11.06500000       6.05644000       8.95284000
H        9.90053000       4.90820000       9.84316000
H        9.74859000       8.10754000       8.76518000
H        8.24236000       9.72942000      10.39670000
H        8.31956000       8.48326000      12.62880000
H        9.84805000       6.47448000      12.68870000
C       17.04150000      11.10880000      16.47560000
N       16.79590000      12.40370000      17.12300000
C       17.79620000      13.40660000      17.30750000
C       17.23110000      14.37600000      18.11970000
N       15.90480000      13.94670000      18.33130000
C       15.59790000      12.81360000      17.64120000
H       16.92360000      10.33650000      17.22500000
H       18.06310000      10.87420000      16.21730000
H       16.35570000      11.01910000      15.64500000
H        0.11491600      13.27480000      16.97920000
H       17.62890000      15.31460000      18.53500000
H       15.23780000      14.39580000       0.26594200
H       14.78100000      12.09110000      17.82270000
C        3.44315000       9.62669000      16.06690000
N        3.70290000       9.84487000      17.50240000
C        4.93460000       9.97683000      18.12710000
C        4.65923000       9.97787000       0.80401100
N        3.32289000       9.83045000       0.88365100
C        2.67647000       9.81149000      18.40670000
H        2.86699000      10.47990000      15.74870000
H        3.00328000       8.65950000      15.86310000
H        4.38372000       9.67845000      15.54620000
H        5.84888000      10.03540000      17.55600000
H        5.34542000       9.90162000       1.64724000
H        2.88845000       9.58455000       1.82049000
H        1.65025000       9.70286000      18.20380000
C       11.65220000       9.19565000      14.64600000
N       12.99660000       8.65381000      14.50040000
C       14.08890000       8.82443000      15.40480000
C       15.23910000       8.22424000      14.85590000
N       14.80160000       7.82920000      13.61440000
C       13.45420000       8.12795000      13.33870000
H       11.53450000      10.16490000      14.04950000
H       11.46980000       9.60401000      15.65650000
H       10.95840000       8.43655000      14.26330000
H       13.88310000       9.16457000      16.40850000
H       16.24650000       8.15694000      15.14680000
H       15.37370000       7.45725000      12.88390000
H       12.84500000       7.89534000      12.44670000
C        7.38466000       5.24008000      17.98540000
N        5.92894000       5.09679000      18.10560000
C        5.01208000       6.12592000      18.34900000
C        3.78324000       5.52585000      18.47090000
N        3.97879000       4.27671000      18.02440000
C        5.26340000       4.03487000      17.68100000
H        7.75280000       6.02299000       0.01032370
H        7.54988000       5.58046000      17.00450000
H        7.85621000       4.26818000      18.14710000
H        5.32115000       7.14409000      18.46800000
H        2.82452000       5.88385000       0.10574300
H        3.18514000       3.70526000      17.79650000
H        5.72682000       3.14356000      17.22050000
C       11.80050000       8.58387000       4.24055000
N       12.38050000       9.79780000       3.58222000
C       11.61190000      10.56370000       2.71211000
C       12.22220000      11.80260000       2.57630000
N       13.28640000      11.76930000       3.42636000
C       13.38000000      10.60960000       4.11350000
H       11.35090000       7.92676000       3.47951000
H       10.93270000       8.78735000       4.88506000
H       12.47180000       7.96015000       4.78855000
H       10.73090000      10.18850000       2.20314000
H       11.93400000      12.64510000       1.95304000
H       13.93690000      12.58110000       3.62664000
H       14.21380000      10.24640000       4.64711000
C       14.12730000       4.82231000      11.16460000
N       14.03950000       5.36058000       9.77279000
C       14.81570000       6.45237000       9.28214000
C       14.72830000       6.38656000       7.91079000
N       13.73900000       5.50035000       7.63283000
C       13.37890000       4.73782000       8.73329000
H       14.21250000       5.71375000      11.89290000
H       14.92930000       4.06479000      11.26140000
H       13.20810000       4.29713000      11.43390000
H       15.33020000       7.13887000       9.92610000
H       15.14200000       6.99981000       7.06672000
H       13.28880000       5.51539000       6.76335000
H       12.83110000       3.84194000       8.67600000
C        3.71020000       3.67240000      14.07100000
N        2.83630000       4.78988000      13.71170000
C        2.61882000       5.30296000      12.42490000
C        1.97331000       6.55226000      12.58280000
N        1.90875000       6.67638000      13.92100000
C        2.29367000       5.61868000      14.65390000
H        4.13793000       3.82022000      15.10950000
H        4.48197000       3.59076000      13.26990000
H        3.22660000       2.74588000      14.17190000
H        2.95881000       4.85247000      11.58540000
H        1.74179000       7.33784000      11.89410000
H        1.34253000       7.36560000      14.35560000
H        2.31089000       5.51088000      15.75110000
C       18.06250000      15.07530000      14.59200000
N       16.92030000      14.19200000      14.19900000
C       16.97200000      13.22960000      13.21000000
C       15.75690000      12.59080000      13.09410000
N       14.94650000      13.30810000      13.98640000
C       15.59990000      14.18500000      14.74240000
H        0.15690800      14.43040000      14.92410000
H       17.66320000      15.66230000      15.45840000
H       18.48960000      15.73410000      13.80420000
H       17.91440000      13.13470000      12.76470000
H       15.38070000      11.73450000      12.61270000
H       13.94250000      13.04120000      14.01720000
H       15.20890000      14.57500000      15.67250000
C       12.57590000      16.88570000      13.76450000
N       12.61800000      16.15370000      12.42810000
C       13.72680000      15.55570000      11.86540000
C       13.27210000      14.67110000      10.88980000
N       11.93870000      14.88520000      10.86730000
C       11.47960000      15.69170000      11.80820000
H       13.20870000      16.41340000      14.48590000
H       11.55240000      17.03990000      14.05990000
H       13.00560000      17.82320000      13.52070000
H       14.73440000      15.80710000      12.14000000
H       13.77720000      13.91740000      10.24590000
H       11.35210000      14.53100000      10.12780000
H       10.51170000      16.17020000      11.86010000
C       10.26380000       2.11349000      12.76390000
N       10.46850000       2.19196000      14.18960000
C       11.68000000       1.96206000      14.80280000
C       11.57360000       2.01873000      16.22950000
N       10.23060000       2.20374000      16.37530000
C        9.50315000       2.24057000      15.24280000
H       10.48230000       1.04080000      12.53430000
H       10.95710000       2.73617000      12.21800000
H        9.24208000       2.29623000      12.46410000
H       12.61460000       1.88384000      14.25470000
H       12.31600000       2.13503000      17.01830000
H        9.78897000       2.23739000      17.29230000
H        8.44743000       2.59820000      15.14100000
C       13.33920000      12.53850000       7.47787000
N       12.53980000      11.29550000       7.29354000
C       13.02720000      10.08090000       7.67931000
C       12.08010000       9.10274000       7.36673000
N       10.96540000       9.83681000       7.09554000
C       11.23930000      11.14800000       6.90846000
H       13.79860000      12.67190000       6.45439000
H       14.09910000      12.47730000       8.22595000
H       12.68790000      13.34470000       7.75943000
H       14.08340000       9.90463000       7.88702000
H       12.07440000       8.06633000       7.43834000
H       10.04180000       9.44240000       6.89397000
H       10.58060000      11.99990000       6.67097000
C       18.27660000      12.65940000       2.95403000
N       18.63770000      13.41950000       4.13421000
C        1.22207000      13.84380000       4.56559000
C        1.18217000      14.43450000       5.84150000
N       18.54920000      14.31990000       6.14809000
C       17.76170000      13.73790000       5.16823000
H       18.18170000      13.44000000       2.12300000
H       17.34700000      12.19190000       3.00090000
H        0.36689000      11.86160000       2.68850000
H        2.12135000      13.74050000       3.95077000
H        1.94054000      14.98090000       6.36363000
H       18.24210000      14.59060000       7.13062000
H       16.71960000      13.44810000       5.32241000
C        4.91179000      18.54560000      14.57780000
N        4.22283000      17.24580000      14.62780000
C        3.38995000      16.98490000      15.70250000
C        2.75773000      15.77080000      15.47770000
N        3.34330000      15.26130000      14.26870000
C        4.39527000      16.09700000      13.87410000
H        5.05940000       0.03693230      13.49370000
H        5.91290000      18.59200000      15.15570000
H        4.24935000       0.64148600      14.91100000
H        3.14195000      17.81840000      16.39540000
H        2.16664000      15.20390000      16.05760000
H        2.97074000      14.41330000      13.83660000
H        5.02483000      16.00360000      12.97730000
C       13.57300000      17.45730000       8.41524000
N       12.90030000      16.50320000       7.54379000
C       13.50180000      15.86320000       6.41423000
C       12.52700000      15.38780000       5.54395000
N       11.36040000      15.64700000       6.16946000
C       11.55250000      16.22880000       7.39240000
H       14.33840000      16.88960000       8.96623000
H       12.94260000      17.84420000       9.28051000
H       14.01240000      18.31250000       7.90580000
H       14.54600000      15.88250000       6.22670000
H       12.59580000      14.76530000       4.57982000
H       10.53340000      15.21000000       5.87452000
H       10.74770000      16.56470000       8.12460000
C       12.80490000       2.09752000       5.13822000
N       11.77760000       1.81119000       4.16039000
C       10.66170000       0.90233900       4.35692000
C        9.66917000       1.20216000       3.37462000
N       10.35640000       2.09030000       2.54005000
C       11.60400000       2.44514000       2.95459000
H       12.91620000       1.22263000       5.80247000
H       12.62230000       2.88094000       5.87831000
H       13.77070000       2.20425000       4.69165000
H       10.73570000       0.13356200       5.16787000
H        8.67604000       0.79010200       3.17641000
H        9.99506000       2.38154000       1.58845000
H       12.27740000       3.21800000       2.58681000
C        5.60031000      13.35900000      16.32700000
N        6.03361000      13.65540000      17.69630000
C        5.47123000      14.71000000      18.42700000
C        6.21714000      14.80040000       0.90362000
N        7.30740000      14.00110000       0.69629600
C        7.27264000      13.35940000      18.17670000
H        6.00721000      14.17100000      15.64310000
H        4.46993000      13.31170000      16.19490000
H        6.07309000      12.44090000      15.93920000
H        4.52274000      15.08610000      18.20800000
H        6.13593000      15.37160000       1.87014000
H        8.07913000      13.90280000       1.41019000
H        7.92977000      12.62160000      17.70400000
C        1.85789000      18.46180000       0.63875000
N        3.03024000      18.25320000       1.48043000
C        4.15987000       0.39013700       1.40854000
C        5.19681000      18.53150000       2.11286000
N        4.57743000      17.47090000       2.71508000
C        3.27144000      17.26090000       2.34360000
H        2.01457000      18.06600000      18.36650000
H        1.76892000       0.84382700       0.43363300
H        1.00410000      18.00490000       1.11298000
H        4.13105000       1.30528000       0.80699800
H        6.21024000       0.09780470       2.23647000
H        5.01281000      16.85160000       3.39916000
H        2.72233000      16.42520000       2.68520000
