632
Lattice="18.639964 0.0 0.0 0.0 18.639964 0.0 0.0 0.0 18.639964" Properties=species:S:1:pos:R:3 pbc="T T T"
C        6.89609000      15.94410000       1.23802000
C        7.68231000      14.82560000       1.98039000
O        7.65048000      13.67090000       1.63255000
O        8.25975000      15.23690000       3.06893000
H        8.48262000      14.40490000       3.57093000
H        7.19174000      16.03500000       0.21532800
H        7.03312000      16.88550000       1.76562000
H        5.86715000      15.66030000       1.26610000
C       12.66560000      11.69480000      14.17030000
C       11.39880000      11.45270000      14.78500000
O       10.40650000      11.15110000      14.17530000
O       11.36040000      11.50250000      16.16340000
H       12.31100000      11.69530000      16.41980000
H       13.43060000      11.08950000      14.59580000
H       12.95400000      12.75800000      14.20300000
H       12.68210000      11.42960000      13.05370000
C        2.76748000      11.62210000       9.11996000
C        1.40467000      10.96150000       9.27057000
O        1.09750000      10.29310000      10.19880000
O        0.73771100      10.90600000       8.14164000
H        1.18672000      11.59430000       7.56359000
H        3.47244000      11.46590000       9.96766000
H        2.82436000      12.67580000       8.97942000
H        3.22601000      11.29210000       8.16224000
C        6.57980000       1.27318000      10.40630000
C        5.15779000       1.77013000      10.45170000
O        4.93186000       2.90159000      10.79040000
O        4.28935000       0.93742100       9.82606000
H        3.43501000       1.48879000       9.90646000
H        6.75114000       1.05212000       9.38177000
H        6.47848000       0.27003100      10.92070000
H        7.29138000       1.96612000      10.97160000
C       10.70060000      16.49000000      13.06890000
C       11.40660000      15.87980000      11.88320000
O       10.74550000      15.67400000      10.84340000
O       12.62500000      15.78350000      11.91990000
H       10.88490000      15.90250000      13.93490000
H        9.65154000      16.59450000      12.82410000
H       11.11510000      17.54480000      13.20790000
C        8.51083000      10.97080000       4.46788000
C        9.48776000      12.07590000       4.58817000
O        9.17517000      13.24730000       4.42322000
O       10.60460000      11.77340000       4.96075000
H        7.82073000      11.02470000       5.28326000
H        9.13276000      10.05250000       4.49125000
H        7.93578000      11.07570000       3.48923000
C       -0.03390920      17.43890000      14.14740000
C        0.17592900      15.92960000      14.48670000
O       18.05130000      15.12730000      13.97010000
O        1.16168000      15.59370000      15.16630000
H        0.49606800      17.57390000      13.19670000
H        0.50220000      18.03440000      14.82800000
H       17.52210000      17.71600000      14.06070000
C       16.43630000      15.86740000       3.33799000
C       15.59820000      16.59310000       4.35127000
O       16.12960000      17.54740000       4.88871000
O       14.44520000      16.32200000       4.55115000
H       15.93690000      15.96760000       2.38990000
H       16.56560000      14.86180000       3.67668000
H       17.45800000      16.30920000       3.23050000
C       17.88760000       8.18569000       1.42333000
C       17.88610000       9.68681000       1.27602000
O       18.41700000      10.17220000       0.25439200
O       17.58820000      10.37860000       2.25873000
H       18.48610000       7.82301000       2.25871000
H       18.44890000       7.78290000       0.58186500
H       16.96490000       7.75425000       1.45988000
C        0.39061800      13.24430000       5.02706000
C        1.77603000      12.94500000       5.49577000
O        1.93374000      12.14260000       6.36797000
O        2.70444000      13.48150000       4.96662000
H        0.40574400      14.04630000       4.25171000
H       18.18250000      13.46340000       5.73521000
H       18.74270000      12.29760000       4.47107000
C        1.73843000       4.79547000       1.57567000
C        1.20095000       3.93836000       2.68106000
O        1.83230000       4.00442000       3.69236000
O        0.28815600       3.14037000       2.49557000
H        1.59850000       4.31862000       0.57368200
H        2.79935000       5.12789000       1.69072000
H        1.06634000       5.66396000       1.63334000
C        8.25324000       1.23076000       5.84287000
C        7.28994000       0.09354810       5.51074000
O        6.66328000       0.20367200       4.48961000
O        7.28341000      17.75520000       6.18286000
H        8.35746000       1.37808000       6.90262000
H        7.84505000       2.16033000       5.45404000
H        9.20384000       1.04449000       5.34539000
C        7.08555000      14.72670000      15.94340000
C        5.98554000      14.18550000      15.14040000
O        5.71500000      12.97300000      15.12700000
O        5.38874000      14.96810000      14.40860000
H        7.88997000      14.01420000      16.08910000
H        6.58607000      14.94000000      16.92390000
H        7.50191000      15.71090000      15.53970000
C        4.11154000      17.45870000       2.35318000
C        3.98317000      17.50880000       0.79313000
O        3.98121000      16.45620000       0.14895200
O        3.83780000      -0.03720920       0.30232400
H        3.58760000      16.58740000       2.69288000
H        3.62004000      18.21790000       2.86432000
H        5.09337000      17.30280000       2.85714000
C       13.55490000       5.55475000       1.78182000
C       13.54000000       4.22557000       2.45644000
O       14.62890000       3.61416000       2.66611000
O       12.39190000       3.80038000       2.60819000
H       12.52990000       5.98470000       1.89699000
H       13.80010000       5.51778000       0.68584200
H       14.31880000       6.15016000       2.32116000
C       10.66190000      14.42980000       7.02573000
C       10.39520000      13.05710000       7.64112000
O       11.29020000      12.34470000       7.93009000
O        9.24426000      12.66880000       7.87569000
H       10.82910000      15.14460000       7.85883000
H        9.85978000      14.76910000       6.38030000
H       11.55450000      14.47110000       6.41321000
C        7.28575000       1.46605000      13.76720000
C        7.50582000       2.30751000      15.00180000
O        6.51976000       2.59472000      15.65440000
O        8.62122000       2.65508000      15.27510000
H        7.71835000       0.45815700      13.91470000
H        7.83301000       1.98584000      12.97740000
H        6.26935000       1.35151000      13.50070000
C       10.47350000       3.93789000      10.32530000
C       10.58230000       5.46937000      10.53900000
O        9.63627000       6.16274000      10.73960000
O       11.67930000       5.98472000      10.20130000
H        9.54852000       3.69202000       9.81744000
H       10.55800000       3.54055000      11.32810000
H       11.33540000       3.61811000       9.73244000
C       13.58000000       8.35330000      13.49370000
C       13.52240000       7.87043000      14.88580000
O       12.52160000       8.06905000      15.55390000
O       14.50940000       7.29428000      15.29720000
H       14.22040000       7.76691000      12.90030000
H       13.89860000       9.37422000      13.33120000
H       12.60370000       8.32989000      13.00430000
C       15.90700000      10.21920000      10.45410000
C       15.83660000      11.68220000      10.54210000
O       15.63270000      12.33210000       9.55354000
O       16.00580000      12.17950000      11.64620000
H       16.72050000       9.86068000       9.79329000
H       14.92610000       9.78159000      10.04850000
H       16.16350000       9.87339000      11.46080000
C       14.51000000       3.45064000       8.85828000
C       14.20240000       2.02551000       8.50762000
O       13.11420000       1.69072000       7.99925000
O       15.04930000       1.26669000       8.80180000
H       14.35560000       4.06515000       8.00153000
H       15.47860000       3.57849000       9.34015000
H       13.80880000       3.71837000       9.57407000
C       14.27770000       7.89883000       5.04495000
C       14.90470000       7.80204000       6.40545000
O       15.94610000       7.20269000       6.67375000
O       14.28150000       8.38433000       7.27578000
H       14.99800000       8.46221000       4.46527000
H       13.42120000       8.45034000       5.02383000
H       14.09710000       6.96290000       4.62034000
C        3.44758000       7.86763000       0.11611600
C        4.10014000       8.72452000       1.14576000
O        3.57520000       8.79750000       2.23999000
O        5.06415000       9.35193000       0.81898400
H        3.17316000       6.95119000       0.62985500
H        4.24009000       7.53897000      17.99420000
H        2.68533000       8.27050000      18.19250000
C       10.41120000      18.00840000      16.69100000
C       10.23900000      18.27100000      18.14260000
O       10.60370000       0.69622200      18.54300000
O        9.80354000      17.39530000       0.20393200
H        9.80178000      17.11180000      16.35550000
H       11.50630000      17.81210000      16.41930000
H       10.21080000       0.22728900      16.09250000
C       14.73890000      12.14790000       0.73411000
C       14.54050000      12.78250000      18.05650000
O       15.28780000      13.68690000      17.72610000
O       13.61030000      12.35810000      17.36730000
H       15.74730000      11.79690000       0.87915700
H       14.00630000      11.34970000       0.80800100
H       14.52540000      12.77570000       1.57890000
C       -0.10236800       3.38550000      10.21720000
C        1.18782000       2.56932000      10.64790000
O        1.34059000       2.46141000      11.83860000
O        2.03419000       2.22708000       9.80560000
H       17.94250000       3.72079000      11.06130000
H       17.94370000       2.76054000       9.52929000
H        0.17542400       4.26891000       9.66356000
C        8.89392000       7.52919000       1.70010000
C        9.14065000       7.28539000       0.26245000
O        9.05058000       8.20055000      18.09780000
O        9.40291000       6.15992000      18.60560000
H        9.82398000       7.88105000       2.10562000
H        8.60100000       6.66541000       2.24289000
H        8.11068000       8.30070000       1.76314000
C        6.72728000      11.11330000      10.63530000
C        6.21691000       9.70599000      10.66560000
O        6.81709000       8.93728000      11.42290000
O        5.24785000       9.49011000       9.92228000
H        5.94205000      11.83800000      10.96330000
H        7.10633000      11.32470000       9.64475000
H        7.65814000      11.15500000      11.28830000
C       16.48560000       0.42266400       1.93526000
C       16.00410000      18.36950000       0.79022400
O       14.83840000      18.34280000       0.48067700
O       16.81020000      17.97700000      18.62660000
H       15.69000000       0.85958500       2.49946000
H       17.32870000       1.09743000       1.82675000
H       16.92560000      18.23520000       2.53104000
C        5.90458000       4.29527000       6.72459000
C        5.82262000       5.74356000       6.25929000
O        4.87484000       6.42608000       6.52319000
O        6.78077000       6.22166000       5.67077000
H        6.93840000       4.04265000       6.97887000
H        5.46520000       3.58239000       5.96016000
H        5.39946000       4.23994000       7.64703000
C       13.01260000       1.92395000      13.00800000
C       14.43760000       1.86951000      13.66640000
O       15.32790000       1.21200000      13.16290000
O       14.56890000       2.64307000      14.62540000
H       12.17150000       1.50920000      13.60510000
H       12.87330000       1.36670000      12.11320000
H       12.88590000       2.96683000      12.86600000
C        3.50922000       5.44821000      14.08980000
C        3.99393000       5.15149000      15.50850000
O        3.39043000       4.36741000      16.15490000
O        4.91936000       5.81911000      15.92310000
H        2.39617000       5.30655000      14.18340000
H        3.99441000       4.85838000      13.26830000
H        3.63581000       6.54971000      13.87420000
C        1.34495000       8.30546000      15.04990000
C        0.38316100       7.82878000      14.05010000
O        0.30083000       8.44498000      13.00570000
O       18.29210000       6.87387000      14.27890000
H        0.96966300       9.23050000      15.55690000
H        2.31663000       8.58140000      14.68260000
H        1.61922000       7.47777000      15.80500000
C        0.72155300      14.77370000       8.73742000
C        1.83942000      15.67250000       9.38353000
O        2.12018000      15.59110000      10.55430000
O        2.54217000      16.24000000       8.56527000
H        0.49595400      13.83910000       9.26832000
H        1.06771000      14.57060000       7.75344000
H       -0.24101400      15.27660000       8.61247000
C        1.08966000      16.71260000       5.52823000
N        1.17598000      18.18910000       5.53856000
C        1.53774000       0.31512200       6.57314000
C        1.60221000       1.64039000       6.25149000
N        1.32086000       1.57362000       4.91197000
C        1.03413000       0.31718900       4.43877000
H        0.01832290      16.50230000       5.35102000
H        1.56568000      16.27890000       6.46803000
H        1.65712000      16.28720000       4.71082000
H        1.80046000      18.45620000       7.51884000
H        1.87155000       2.50937000       6.86157000
H        1.17286000       2.46677000       4.30628000
H        1.00789000       0.01048960       3.40546000
C        4.61128000      15.92460000       5.46081000
N        5.35669000      14.91990000       6.27342000
C        4.77091000      14.02830000       7.16922000
C        5.78556000      13.14080000       7.49858000
N        6.91572000      13.62180000       6.91031000
C        6.66215000      14.73040000       6.15478000
H        3.88979000      16.39310000       6.06418000
H        4.13999000      15.29990000       4.68200000
H        5.35132000      16.64090000       5.16536000
H        3.71938000      14.10650000       7.41059000
H        5.75894000      12.26920000       8.09028000
H        7.86602000      13.14170000       7.04046000
H        7.31425000      15.35510000       5.56405000
C        9.39887000       2.79655000       2.76292000
N        8.49792000       2.46101000       1.56166000
C        7.67762000       1.35817000       1.57314000
C        7.03025000       1.26068000       0.31971100
N        7.54788000       2.29343000      18.21220000
C        8.47018000       2.95882000       0.25901900
H        8.74831000       3.18572000       3.53052000
H       10.03170000       3.61980000       2.41781000
H        9.93682000       1.89936000       3.16586000
H        7.66426000       0.70942500       2.45784000
H        6.27848000       0.64376500      18.47350000
H        7.29785000       2.49023000      17.22430000
H        9.13451000       3.73056000      18.49090000
C        5.11000000      18.24920000      15.95340000
N        4.45926000      18.67720000      14.72660000
C        3.95703000      17.75800000      13.75170000
C        3.13122000      18.47030000      12.87700000
N        3.26309000       1.14612000      13.33610000
C        3.99664000       1.34326000      14.45070000
H        4.73756000      18.95750000      16.69520000
H        6.22051000      18.45060000      15.80690000
H        4.82327000      17.21840000      16.23070000
H        4.16213000      16.70140000      13.71300000
H        2.72046000      18.27230000      11.86110000
H        2.75267000       1.87491000      12.88480000
H        4.16283000       2.29106000      15.01200000
C       11.94770000      14.76300000      17.96050000
N       12.07430000      14.82230000       0.80672800
C       11.19130000      14.39860000       1.70177000
C       11.61050000      14.76200000       2.96556000
N       12.77490000      15.38780000       2.75508000
C       13.09080000      15.50910000       1.48691000
H       11.56840000      13.80930000      17.69810000
H       12.87380000      14.92060000      17.43090000
H       11.47220000      15.61800000      17.61970000
H       10.39590000      13.72340000       1.40916000
H       11.25390000      14.54420000       3.93565000
H       13.27500000      15.84000000       3.57235000
H       13.82770000      16.20470000       1.02279000
C       15.33850000       3.14581000      18.10860000
N       16.22450000       4.23321000      17.57470000
C       17.43490000       4.59362000      18.10190000
C       18.26530000       5.18826000      17.18760000
N       17.40520000       5.30248000      16.18340000
C       16.21870000       4.67473000      16.30580000
H       15.27300000       2.45094000      17.27670000
H       14.34810000       3.51154000      18.41960000
H       15.82930000       2.65091000       0.36747100
H       17.81390000       4.19399000       0.42765700
H        0.70640700       5.50036000      17.22140000
H       17.62940000       5.82034000      15.34430000
H       15.55390000       4.54192000      15.53670000
C        0.77231000       1.31192000      18.11070000
N        0.12595100       1.72002000      16.77990000
C        0.80154000       2.50135000      15.85580000
C       -0.08146340       2.72813000      14.78110000
N       17.48220000       1.88073000      15.05810000
C       17.59500000       1.29513000      16.24960000
H        1.77368000       0.95208100      17.78510000
H        0.16150100       0.51384900      18.49030000
H        0.78662700       2.16938000      18.80840000
H        1.86361000       2.80114000      15.99190000
H        0.01505550       3.23160000      13.84400000
H       16.74630000       1.64145000      14.38240000
H       16.99910000       0.49188000      16.65340000
C       10.34820000      12.20400000      11.22360000
N       10.83460000      10.79910000      11.02930000
C       11.96070000      10.36990000      10.32830000
C       12.01140000       8.95044000      10.24790000
N       10.81940000       8.65719000      10.87350000
C       10.11180000       9.68206000      11.32780000
H        9.52566000      12.45670000      10.54580000
H       11.13260000      12.91150000      10.97800000
H       10.04610000      12.37830000      12.26740000
H       12.67470000      11.16370000       9.94700000
H       12.74920000       8.23233000       9.87487000
H       10.55210000       7.68536000      10.81600000
H        8.99658000       9.63788000      11.47320000
C       17.12860000       5.33114000       4.43598000
N       17.13170000       3.92776000       5.02136000
C       17.18450000       3.62869000       6.42135000
C       16.95610000       2.33309000       6.61319000
N       16.91940000       1.81834000       5.36403000
C       16.82640000       2.75817000       4.37369000
H       16.17430000       5.60881000       3.94821000
H       17.99890000       5.38287000       3.73841000
H       17.22600000       6.06268000       5.20813000
H       17.31740000       4.43543000       7.08498000
H       16.93870000       1.69067000       7.43419000
H       16.74050000       0.84229200       5.26016000
H       16.65530000       2.57195000       3.30951000
C        7.32368000       5.05549000      13.07950000
N        8.09724000       5.88317000      14.00580000
C        8.79090000       7.02839000      13.59640000
C        9.31271000       7.58757000      14.70510000
N        8.89387000       6.85382000      15.73940000
C        8.15323000       5.80153000      15.33210000
H        6.87109000       5.57361000      12.21380000
H        6.46539000       4.54810000      13.63810000
H        8.00943000       4.27871000      12.67460000
H        8.71516000       7.31549000      12.57480000
H        9.79641000       8.53272000      14.73640000
H        9.08077000       7.14156000      16.75880000
H        7.39186000       5.33621000      15.96720000
C       10.78030000       6.11096000       4.32996000
N       10.87280000       4.90235000       5.19457000
C        9.80489000       4.51528000       5.96024000
C       10.13630000       3.51275000       6.84598000
N       11.45900000       3.21508000       6.46096000
C       11.95850000       4.06135000       5.50017000
H       10.53510000       5.67957000       3.37338000
H       11.75160000       6.54152000       4.30765000
H        9.91957000       6.69567000       4.44638000
H        8.81101000       4.97925000       5.81042000
H        9.57900000       2.97018000       7.55696000
H       11.96580000       2.56656000       7.10328000
H       13.00860000       4.04354000       5.11019000
C        4.56138000       2.59643000       3.42984000
N        4.82761000       3.39575000       2.27086000
C        5.43989000       4.70280000       2.21262000
C        5.40278000       5.10756000       0.87123500
N        4.71867000       4.08533000       0.23033500
C        4.43238000       3.05527000       1.05127000
H        4.05687000       3.16056000       4.23006000
H        5.54214000       2.35375000       3.83930000
H        4.01447000       1.70483000       3.24105000
H        5.65204000       5.32490000       3.13087000
H        5.74204000       5.99676000       0.38211300
H        4.33251000       4.11196000      17.93610000
H        3.90085000       2.21388000       0.71449500
C       17.95340000      18.50380000      10.76430000
N       16.99130000      17.50170000      10.92060000
C       17.30260000      16.16090000      11.09280000
C       16.16560000      15.41890000      11.33210000
N       15.18000000      16.37720000      11.25470000
C       15.57330000      17.64180000      10.95100000
H        0.35839100      18.11480000      10.81780000
H       17.89000000       0.49997800      11.61250000
H       17.88690000       0.37843200       9.82864000
H       18.31800000      15.79030000      11.07740000
H       16.01710000      14.40470000      11.40880000
H       14.16430000      16.25010000      11.41640000
H       15.03440000      18.61250000      11.11120000
C       16.78170000      10.77530000       6.64700000
N       15.45530000      11.07490000       6.17016000
C       15.22550000      11.42700000       4.81227000
C       13.94190000      11.96710000       4.76493000
N       13.47060000      11.92020000       6.04330000
C       14.33430000      11.32350000       6.88088000
H       16.69220000      10.08230000       7.46558000
H       17.19240000      11.75480000       7.03497000
H       17.41370000      10.43450000       5.84166000
H       15.94390000      11.32920000       4.02419000
H       13.38010000      12.40910000       3.96048000
H       12.49570000      12.07940000       6.21636000
H       14.26550000      11.12720000       7.98895000
C        1.74290000       5.86254000       7.06241000
N        1.57662000       6.77181000       5.92032000
C        0.76747900       7.86847000       5.88603000
C        1.06289000       8.64249000       4.79917000
N        1.96626000       7.87561000       4.10068000
C        2.29117000       6.71091000       4.73235000
H        2.78392000       5.71852000       7.33949000
H        1.23870000       4.90688000       6.85502000
H        1.31260000       6.29746000       7.95792000
H        0.12206800       8.02356000       6.72469000
H        0.68079100       9.59479000       4.43134000
H        2.38141000       8.25824000       3.22298000
H        3.06049000       5.93069000       4.47793000
C        5.09500000      12.44850000      18.41410000
N        3.77918000      12.70780000      17.84430000
C        2.76726000      11.80770000      17.59830000
C        1.80887000      12.38120000      16.73780000
N        2.35499000      13.63020000      16.53930000
C        3.53006000      13.88350000      17.14670000
H        5.12841000      11.60260000       0.48599100
H        5.44660000      13.37990000       0.20834800
H        5.68234000      12.36040000      17.46690000
H        2.80232000      10.80810000      18.09390000
H        0.80497300      12.02620000      16.51760000
H        1.89645000      14.45880000      16.07770000
H        4.22108000      14.68740000      17.01360000
C       11.11060000      10.78100000       2.24670000
N       11.74360000       9.89712000       1.33879000
C       12.98550000       9.17010000       1.57219000
C       13.26990000       8.50590000       0.35939400
N       12.23090000       8.81140000      18.17320000
C       11.32700000       9.67218000      -0.01094110
H       11.79960000      11.63540000       2.33291000
H       11.07430000      10.18790000       3.18197000
H       10.02970000      11.07110000       1.92989000
H       13.56060000       9.27817000       2.44662000
H       14.12370000       7.85595000       0.17859300
H       12.15010000       8.50021000      17.19930000
H       10.50390000      10.15350000      18.10710000
C       14.59840000       4.96264000      12.12030000
N       15.33690000       5.89240000      11.22030000
C       16.48450000       6.60186000      11.46390000
C       16.89620000       7.27419000      10.28940000
N       15.90050000       7.00522000       9.38948000
C       14.90890000       6.19557000       9.94356000
H       14.54860000       5.28599000      13.17180000
H       14.99870000       3.94246000      12.19230000
H       13.53690000       4.80534000      11.76880000
H       16.96300000       6.57755000      12.42870000
H       17.80910000       7.92645000      10.09190000
H       15.96280000       7.32212000       8.36340000
H       13.97320000       5.91589000       9.42340000
C        8.03103000      10.82710000      16.43560000
N        6.93358000       9.98706000      15.96580000
C        6.63316000       9.73192000      14.64390000
C        5.64845000       8.77644000      14.44830000
N        5.51351000       8.37962000      15.79080000
C        6.23168000       9.08035000      16.71710000
H        8.02381000      11.79740000      16.04060000
H        8.92800000      10.40610000      16.02500000
H        7.99973000      10.96330000      17.51570000
H        7.13848000      10.37920000      13.91620000
H        5.06795000       8.38648000      13.64880000
H        5.06298000       7.43316000      16.03950000
H        6.40342000       8.76010000      17.72520000
C        0.49268200      15.68740000      18.50030000
N        0.61778800      14.56740000       0.68958500
C        1.74334000      14.27240000       1.42039000
C        1.56335000      13.09220000       2.08847000
N        0.31534900      12.74300000       1.69829000
C       18.28350000      13.66720000       1.01024000
H       18.60880000      15.40570000      17.58110000
H        1.44141000      16.12020000      18.18050000
H        0.03098370      16.49060000       0.39320500
H        2.58922000      14.90440000       1.34203000
H        2.13693000      12.53490000       2.83608000
H       -0.07424280      11.84080000       1.93037000
H       17.35050000      13.41250000       0.47184600
C        7.66101000       7.38909000       8.63533000
N        8.78167000       8.21460000       8.14979000
C       10.13850000       7.83115000       7.81047000
C       10.76820000       8.89477000       7.26304000
N        9.85522000       9.93261000       7.40340000
C        8.61659000       9.50313000       7.85204000
H        7.73650000       6.47346000       8.12324000
H        6.78077000       7.98189000       8.27601000
H        7.66308000       7.34640000       9.75652000
H       10.44250000       6.78252000       7.94195000
H       11.70450000       9.02547000       6.87145000
H       10.05130000      10.96730000       7.26588000
H        7.71268000      10.08760000       8.00091000
C       13.55860000       0.96503000       4.64858000
N       12.54220000       0.20239400       3.93278000
C       11.53650000      18.12380000       4.59424000
C       10.59310000      17.79040000       3.58042000
N       11.18170000      18.12490000       2.39193000
C       12.31680000       0.21981500       2.49264000
H       13.54290000       0.74817900       5.71082000
H       13.39990000       2.02342000       4.34613000
H       14.52040000       0.57418000       4.25835000
H       11.55750000      17.89200000       5.65518000
H        9.67196000      17.30760000       3.62446000
H       10.70200000      17.99570000       1.47426000
H       13.02400000       0.61379600       1.74956000
C       15.81920000      14.50900000       7.76418000
N       14.66350000      15.33970000       8.11337000
C       14.58550000      16.71440000       7.97947000
C       13.36630000      17.06550000       8.54250000
N       12.87070000      15.88660000       9.05789000
C       13.60360000      14.83710000       8.74110000
H       16.36440000      14.37670000       8.63846000
H       16.26730000      14.95510000       6.85161000
H       15.56110000      13.47150000       7.45694000
H       15.33100000      17.24710000       7.34065000
H       12.93380000      18.06570000       8.76760000
H       12.07760000      15.76540000       9.71735000
H       13.49220000      13.82730000       9.02805000
C        4.92781000       6.20637000       9.81324000
N        3.59457000       6.40739000      10.42700000
C        2.79678000       5.37266000      10.91030000
C        1.66611000       5.86733000      11.52380000
N        1.77491000       7.15533000      11.17230000
C        2.92238000       7.56088000      10.53020000
H        4.93862000       6.31158000       8.78102000
H        5.21432000       5.19124000      10.10750000
H        5.71868000       6.86555000      10.24970000
H        3.13434000       4.36922000      10.86760000
H        0.79279400       5.46134000      12.02800000
H        1.17127000       7.88453000      11.54560000
H        3.23600000       8.50871000      10.26700000
C       16.89590000       8.88348000      16.83460000
N       16.64500000       9.98163000      15.87800000
C       16.82870000      11.34840000      16.20280000
C       16.99690000      12.09870000      15.04170000
N       16.51880000      11.25750000      14.09100000
C       16.35210000       9.96170000      14.50570000
H       16.28640000       9.01056000      17.74550000
H       17.92610000       8.74008000      17.07400000
H       16.51320000       7.95788000      16.31570000
H       17.07110000      11.50540000      17.20840000
H       17.14930000      13.16990000      14.83930000
H       16.33520000      11.57760000      13.14440000
H       16.19950000       9.05427000      13.91530000
C       14.75730000      15.01880000      14.37820000
N       14.61290000      16.29650000      15.06760000
C       13.96160000      17.45380000      14.62210000
C       13.91900000      18.31930000      15.71480000
N       14.68930000      17.73280000      16.62540000
C       15.03970000      16.48720000      16.34610000
H       15.61900000      15.11480000      13.72120000
H       13.81310000      14.75240000      13.83590000
H       14.99810000      14.27610000      15.20050000
H       13.52300000      17.55460000      13.64070000
H       13.37120000       0.64726600      15.78500000
H       14.93030000      18.20860000      17.45740000
H       15.50920000      15.78180000      16.98190000
C       11.71580000       4.88289000      14.53910000
N       11.52870000       4.30180000      15.80700000
C       11.67190000       4.93015000      17.00020000
C       11.76250000       3.97661000      17.96560000
N       11.60270000       2.81120000      17.31120000
C       11.38760000       2.94491000      16.00240000
H       11.20550000       5.90196000      14.50970000
H       11.24280000       4.16565000      13.78420000
H       12.74180000       5.00315000      14.36850000
H       11.67190000       6.01228000      17.04180000
H       11.78930000       4.14133000       0.37544300
H       11.33180000       1.97333000      17.78020000
H       11.11490000       2.13042000      15.30470000
C        8.43465000      16.55400000       8.88652000
N        7.10136000      16.22950000       9.39018000
C        6.96438000      15.48960000      10.50910000
C        5.61203000      15.41630000      10.84960000
N        4.94025000      16.17730000       9.83775000
C        5.81080000      16.71790000       8.96486000
H        8.38667000      16.50440000       7.80244000
H        9.17346000      15.79010000       9.18314000
H        8.77115000      17.52430000       9.23024000
H        7.82008000      15.17450000      11.09570000
H        5.09283000      15.02630000      11.72340000
H        3.91091000      16.36550000       9.91212000
H        5.55672000      17.29590000       8.05995000
C        5.29179000      12.03220000       3.54729000
N        5.38770000      10.86160000       4.43996000
C        4.72482000      10.80950000       5.64516000
C        4.95791000       9.57416000       6.21354000
N        5.60616000       8.84310000       5.22493000
C        5.77866000       9.56543000       4.08404000
H        4.27762000      12.42540000       3.42186000
H        5.72512000      11.77950000       2.56172000
H        5.80550000      12.87620000       4.03423000
H        4.04017000      11.59360000       6.00294000
H        4.45015000       9.04429000       7.06244000
H        5.83392000       7.84606000       5.38566000
H        5.83233000       9.24939000       3.04077000
C        0.10557500      12.76050000      12.26180000
N        1.36692000      12.61320000      12.76440000
C        1.97442000      11.45670000      13.18280000
C        3.29885000      11.75560000      13.52030000
N        3.45226000      13.09050000      13.27060000
C        2.25466000      13.66120000      13.03760000
H        0.15950200      13.56750000      11.51290000
H       18.04490000      13.01820000      13.04670000
H       18.38710000      11.79790000      11.75600000
H        1.33331000      10.58500000      13.19030000
H        4.15924000      11.11890000      13.94080000
H        4.17295000      13.64280000      13.72690000
H        2.09902000      14.72500000      12.98250000
